15
	Energy:      -1.1476118
C         -2.84979        0.02358       -0.00303
C         -1.64618        0.93468        0.00078
C         -0.33386        0.15496       -0.01057
H         -1.71997        1.56000        0.89691
H         -1.72540        1.57579       -0.88376
C          0.95255        0.98981        0.02779
H         -0.30849       -0.48689       -0.90086
H         -0.32423       -0.52930        0.84850
N          0.75718        2.43391        0.04698
H          1.57971        0.72854       -0.83290
H          1.52666        0.70610        0.91740
O         -2.80021       -1.20178       -0.05125
H         -3.82432        0.54013        0.03103
H          0.48383        2.75221       -0.88245
H          1.65187        2.88669        0.23728
